# GMG for MODFLOW, generated by Flopy.
1.000e+03        30 2.500e-01       100
1.000e+00         0         0         0
        0         0 7.500e-01 1.000e-02 1.000e+00
 1.000e+00
