## Discretization file for MODFLOW, generated by Flopy.
         3       411       501       749         4         2
  0  0  0
        0  5.000e+02           (5G13.0)         -1 DELR(NCOL)
        0  5.000e+02           (5G13.0)         -1 DELC(NROW)
OPEN/CLOSE modref\top_1.ref                1 (FREE)               -1 TOP OF SYSTEM
OPEN/CLOSE modref\botm_1.ref               1 (FREE)               -1 BOTTOM OF LAYER
OPEN/CLOSE modref\botm_2.ref               1 (FREE)               -1 BOTTOM OF LAYER
OPEN/CLOSE modref\botm_3.ref               1 (FREE)               -1 BOTTOM OF LAYER
     31.000000             1  1.000000 TR
     28.000000             1  1.000000 TR
     31.000000             1  1.000000 TR
     30.000000             1  1.000000 TR
     31.000000             1  1.000000 TR
     30.000000             1  1.000000 TR
     31.000000             1  1.000000 TR
     31.000000             1  1.000000 TR
     30.000000             1  1.000000 TR
     31.000000             1  1.000000 TR
     30.000000             1  1.000000 TR
     31.000000             1  1.000000 TR
     31.000000             1  1.000000 TR
     28.000000             1  1.000000 TR
     31.000000             1  1.000000 TR
     30.000000             1  1.000000 TR
     31.000000             1  1.000000 TR
     30.000000             1  1.000000 TR
     31.000000             1  1.000000 TR
     31.000000             1  1.000000 TR
     30.000000             1  1.000000 TR
     31.000000             1  1.000000 TR
     30.000000             1  1.000000 TR
     31.000000             1  1.000000 TR
     31.000000             1  1.000000 TR
     29.000000             1  1.000000 TR
     31.000000             1  1.000000 TR
     30.000000             1  1.000000 TR
     31.000000             1  1.000000 TR
     30.000000             1  1.000000 TR
     31.000000             1  1.000000 TR
     31.000000             1  1.000000 TR
     30.000000             1  1.000000 TR
     31.000000             1  1.000000 TR
     30.000000             1  1.000000 TR
     31.000000             1  1.000000 TR
     31.000000             1  1.000000 TR
     28.000000             1  1.000000 TR
     31.000000             1  1.000000 TR
     30.000000             1  1.000000 TR
     31.000000             1  1.000000 TR
     30.000000             1  1.000000 TR
     31.000000             1  1.000000 TR
     31.000000             1  1.000000 TR
     30.000000             1  1.000000 TR
     31.000000             1  1.000000 TR
     30.000000             1  1.000000 TR
     31.000000             1  1.000000 TR
     31.000000             1  1.000000 TR
     28.000000             1  1.000000 TR
     31.000000             1  1.000000 TR
     30.000000             1  1.000000 TR
     31.000000             1  1.000000 TR
     30.000000             1  1.000000 TR
     31.000000             1  1.000000 TR
     31.000000             1  1.000000 TR
     30.000000             1  1.000000 TR
     31.000000             1  1.000000 TR
     30.000000             1  1.000000 TR
     31.000000             1  1.000000 TR
     31.000000             1  1.000000 TR
     28.000000             1  1.000000 TR
     31.000000             1  1.000000 TR
     30.000000             1  1.000000 TR
     31.000000             1  1.000000 TR
     30.000000             1  1.000000 TR
     31.000000             1  1.000000 TR
     31.000000             1  1.000000 TR
     30.000000             1  1.000000 TR
     31.000000             1  1.000000 TR
     30.000000             1  1.000000 TR
     31.000000             1  1.000000 TR
     31.000000             1  1.000000 TR
     29.000000             1  1.000000 TR
     31.000000             1  1.000000 TR
     30.000000             1  1.000000 TR
     31.000000             1  1.000000 TR
     30.000000             1  1.000000 TR
     31.000000             1  1.000000 TR
     31.000000             1  1.000000 TR
     30.000000             1  1.000000 TR
     31.000000             1  1.000000 TR
     30.000000             1  1.000000 TR
     31.000000             1  1.000000 TR
     31.000000             1  1.000000 TR
     28.000000             1  1.000000 TR
     31.000000             1  1.000000 TR
     30.000000             1  1.000000 TR
     31.000000             1  1.000000 TR
     30.000000             1  1.000000 TR
     31.000000             1  1.000000 TR
     31.000000             1  1.000000 TR
     30.000000             1  1.000000 TR
     31.000000             1  1.000000 TR
     30.000000             1  1.000000 TR
     31.000000             1  1.000000 TR
     31.000000             1  1.000000 TR
     28.000000             1  1.000000 TR
     31.000000             1  1.000000 TR
     30.000000             1  1.000000 TR
     31.000000             1  1.000000 TR
     30.000000             1  1.000000 TR
     31.000000             1  1.000000 TR
     31.000000             1  1.000000 TR
     30.000000             1  1.000000 TR
     31.000000             1  1.000000 TR
     30.000000             1  1.000000 TR
     31.000000             1  1.000000 TR
     31.000000             1  1.000000 TR
     28.000000             1  1.000000 TR
     31.000000             1  1.000000 TR
     30.000000             1  1.000000 TR
     31.000000             1  1.000000 TR
     30.000000             1  1.000000 TR
     31.000000             1  1.000000 TR
     31.000000             1  1.000000 TR
     30.000000             1  1.000000 TR
     31.000000             1  1.000000 TR
     30.000000             1  1.000000 TR
     31.000000             1  1.000000 TR
     31.000000             1  1.000000 TR
     29.000000             1  1.000000 TR
     31.000000             1  1.000000 TR
     30.000000             1  1.000000 TR
     31.000000             1  1.000000 TR
     30.000000             1  1.000000 TR
     31.000000             1  1.000000 TR
     31.000000             1  1.000000 TR
     30.000000             1  1.000000 TR
     31.000000             1  1.000000 TR
     30.000000             1  1.000000 TR
     31.000000             1  1.000000 TR
     31.000000             1  1.000000 TR
     28.000000             1  1.000000 TR
     31.000000             1  1.000000 TR
     30.000000             1  1.000000 TR
     31.000000             1  1.000000 TR
     30.000000             1  1.000000 TR
     31.000000             1  1.000000 TR
     31.000000             1  1.000000 TR
     30.000000             1  1.000000 TR
     31.000000             1  1.000000 TR
     30.000000             1  1.000000 TR
     31.000000             1  1.000000 TR
     31.000000             1  1.000000 TR
     28.000000             1  1.000000 TR
     31.000000             1  1.000000 TR
     30.000000             1  1.000000 TR
     31.000000             1  1.000000 TR
     30.000000             1  1.000000 TR
     31.000000             1  1.000000 TR
     31.000000             1  1.000000 TR
     30.000000             1  1.000000 TR
     31.000000             1  1.000000 TR
     30.000000             1  1.000000 TR
     31.000000             1  1.000000 TR
     31.000000             1  1.000000 TR
     28.000000             1  1.000000 TR
     31.000000             1  1.000000 TR
     30.000000             1  1.000000 TR
     31.000000             1  1.000000 TR
     30.000000             1  1.000000 TR
     31.000000             1  1.000000 TR
     31.000000             1  1.000000 TR
     30.000000             1  1.000000 TR
     31.000000             1  1.000000 TR
     30.000000             1  1.000000 TR
     31.000000             1  1.000000 TR
     31.000000             1  1.000000 TR
     29.000000             1  1.000000 TR
     31.000000             1  1.000000 TR
     30.000000             1  1.000000 TR
     31.000000             1  1.000000 TR
     30.000000             1  1.000000 TR
     31.000000             1  1.000000 TR
     31.000000             1  1.000000 TR
     30.000000             1  1.000000 TR
     31.000000             1  1.000000 TR
     30.000000             1  1.000000 TR
     31.000000             1  1.000000 TR
     31.000000             1  1.000000 TR
     28.000000             1  1.000000 TR
     31.000000             1  1.000000 TR
     30.000000             1  1.000000 TR
     31.000000             1  1.000000 TR
     30.000000             1  1.000000 TR
     31.000000             1  1.000000 TR
     31.000000             1  1.000000 TR
     30.000000             1  1.000000 TR
     31.000000             1  1.000000 TR
     30.000000             1  1.000000 TR
     31.000000             1  1.000000 TR
     31.000000             1  1.000000 TR
     28.000000             1  1.000000 TR
     31.000000             1  1.000000 TR
     30.000000             1  1.000000 TR
     31.000000             1  1.000000 TR
     30.000000             1  1.000000 TR
     31.000000             1  1.000000 TR
     31.000000             1  1.000000 TR
     30.000000             1  1.000000 TR
     31.000000             1  1.000000 TR
     30.000000             1  1.000000 TR
     31.000000             1  1.000000 TR
     31.000000             1  1.000000 TR
     28.000000             1  1.000000 TR
     31.000000             1  1.000000 TR
     30.000000             1  1.000000 TR
     31.000000             1  1.000000 TR
     30.000000             1  1.000000 TR
     31.000000             1  1.000000 TR
     31.000000             1  1.000000 TR
     30.000000             1  1.000000 TR
     31.000000             1  1.000000 TR
     30.000000             1  1.000000 TR
     31.000000             1  1.000000 TR
     31.000000             1  1.000000 TR
     29.000000             1  1.000000 TR
     31.000000             1  1.000000 TR
     30.000000             1  1.000000 TR
     31.000000             1  1.000000 TR
     30.000000             1  1.000000 TR
     31.000000             1  1.000000 TR
     31.000000             1  1.000000 TR
     30.000000             1  1.000000 TR
     31.000000             1  1.000000 TR
     30.000000             1  1.000000 TR
     31.000000             1  1.000000 TR
     31.000000             1  1.000000 TR
     28.000000             1  1.000000 TR
     31.000000             1  1.000000 TR
     30.000000             1  1.000000 TR
     31.000000             1  1.000000 TR
     30.000000             1  1.000000 TR
     31.000000             1  1.000000 TR
     31.000000             1  1.000000 TR
     30.000000             1  1.000000 TR
     31.000000             1  1.000000 TR
     30.000000             1  1.000000 TR
     31.000000             1  1.000000 TR
     31.000000             1  1.000000 TR
     28.000000             1  1.000000 TR
     31.000000             1  1.000000 TR
     30.000000             1  1.000000 TR
     31.000000             1  1.000000 TR
     30.000000             1  1.000000 TR
     31.000000             1  1.000000 TR
     31.000000             1  1.000000 TR
     30.000000             1  1.000000 TR
     31.000000             1  1.000000 TR
     30.000000             1  1.000000 TR
     31.000000             1  1.000000 TR
     31.000000             1  1.000000 TR
     28.000000             1  1.000000 TR
     31.000000             1  1.000000 TR
     30.000000             1  1.000000 TR
     31.000000             1  1.000000 TR
     30.000000             1  1.000000 TR
     31.000000             1  1.000000 TR
     31.000000             1  1.000000 TR
     30.000000             1  1.000000 TR
     31.000000             1  1.000000 TR
     30.000000             1  1.000000 TR
     31.000000             1  1.000000 TR
     31.000000             1  1.000000 TR
     29.000000             1  1.000000 TR
     31.000000             1  1.000000 TR
     30.000000             1  1.000000 TR
     31.000000             1  1.000000 TR
     30.000000             1  1.000000 TR
     31.000000             1  1.000000 TR
     31.000000             1  1.000000 TR
     30.000000             1  1.000000 TR
     31.000000             1  1.000000 TR
     30.000000             1  1.000000 TR
     31.000000             1  1.000000 TR
     31.000000             1  1.000000 TR
     28.000000             1  1.000000 TR
     31.000000             1  1.000000 TR
     30.000000             1  1.000000 TR
     31.000000             1  1.000000 TR
     30.000000             1  1.000000 TR
     31.000000             1  1.000000 TR
     31.000000             1  1.000000 TR
     30.000000             1  1.000000 TR
     31.000000             1  1.000000 TR
     30.000000             1  1.000000 TR
     31.000000             1  1.000000 TR
     31.000000             1  1.000000 TR
     28.000000             1  1.000000 TR
     31.000000             1  1.000000 TR
     30.000000             1  1.000000 TR
     31.000000             1  1.000000 TR
     30.000000             1  1.000000 TR
     31.000000             1  1.000000 TR
     31.000000             1  1.000000 TR
     30.000000             1  1.000000 TR
     31.000000             1  1.000000 TR
     30.000000             1  1.000000 TR
     31.000000             1  1.000000 TR
     31.000000             1  1.000000 TR
     28.000000             1  1.000000 TR
     31.000000             1  1.000000 TR
     30.000000             1  1.000000 TR
     31.000000             1  1.000000 TR
     30.000000             1  1.000000 TR
     31.000000             1  1.000000 TR
     31.000000             1  1.000000 TR
     30.000000             1  1.000000 TR
     31.000000             1  1.000000 TR
     30.000000             1  1.000000 TR
     31.000000             1  1.000000 TR
     31.000000             1  1.000000 TR
     29.000000             1  1.000000 TR
     31.000000             1  1.000000 TR
     30.000000             1  1.000000 TR
     31.000000             1  1.000000 TR
     30.000000             1  1.000000 TR
     31.000000             1  1.000000 TR
     31.000000             1  1.000000 TR
     30.000000             1  1.000000 TR
     31.000000             1  1.000000 TR
     30.000000             1  1.000000 TR
     31.000000             1  1.000000 TR
     31.000000             1  1.000000 TR
     28.000000             1  1.000000 TR
     31.000000             1  1.000000 TR
     30.000000             1  1.000000 TR
     31.000000             1  1.000000 TR
     30.000000             1  1.000000 TR
     31.000000             1  1.000000 TR
     31.000000             1  1.000000 TR
     30.000000             1  1.000000 TR
     31.000000             1  1.000000 TR
     30.000000             1  1.000000 TR
     31.000000             1  1.000000 TR
     31.000000             1  1.000000 TR
     28.000000             1  1.000000 TR
     31.000000             1  1.000000 TR
     30.000000             1  1.000000 TR
     31.000000             1  1.000000 TR
     30.000000             1  1.000000 TR
     31.000000             1  1.000000 TR
     31.000000             1  1.000000 TR
     30.000000             1  1.000000 TR
     31.000000             1  1.000000 TR
     30.000000             1  1.000000 TR
     31.000000             1  1.000000 TR
     31.000000             1  1.000000 TR
     28.000000             1  1.000000 TR
     31.000000             1  1.000000 TR
     30.000000             1  1.000000 TR
     31.000000             1  1.000000 TR
     30.000000             1  1.000000 TR
     31.000000             1  1.000000 TR
     31.000000             1  1.000000 TR
     30.000000             1  1.000000 TR
     31.000000             1  1.000000 TR
     30.000000             1  1.000000 TR
     31.000000             1  1.000000 TR
     31.000000             1  1.000000 TR
     29.000000             1  1.000000 TR
     31.000000             1  1.000000 TR
     30.000000             1  1.000000 TR
     31.000000             1  1.000000 TR
     30.000000             1  1.000000 TR
     31.000000             1  1.000000 TR
     31.000000             1  1.000000 TR
     30.000000             1  1.000000 TR
     31.000000             1  1.000000 TR
     30.000000             1  1.000000 TR
     31.000000             1  1.000000 TR
     31.000000             1  1.000000 TR
     28.000000             1  1.000000 TR
     31.000000             1  1.000000 TR
     30.000000             1  1.000000 TR
     31.000000             1  1.000000 TR
     30.000000             1  1.000000 TR
     31.000000             1  1.000000 TR
     31.000000             1  1.000000 TR
     30.000000             1  1.000000 TR
     31.000000             1  1.000000 TR
     30.000000             1  1.000000 TR
     31.000000             1  1.000000 TR
     31.000000             1  1.000000 TR
     28.000000             1  1.000000 TR
     31.000000             1  1.000000 TR
     30.000000             1  1.000000 TR
     31.000000             1  1.000000 TR
     30.000000             1  1.000000 TR
     31.000000             1  1.000000 TR
     31.000000             1  1.000000 TR
     30.000000             1  1.000000 TR
     31.000000             1  1.000000 TR
     30.000000             1  1.000000 TR
     31.000000             1  1.000000 TR
     31.000000             1  1.000000 TR
     28.000000             1  1.000000 TR
     31.000000             1  1.000000 TR
     30.000000             1  1.000000 TR
     31.000000             1  1.000000 TR
     30.000000             1  1.000000 TR
     31.000000             1  1.000000 TR
     31.000000             1  1.000000 TR
     30.000000             1  1.000000 TR
     31.000000             1  1.000000 TR
     30.000000             1  1.000000 TR
     31.000000             1  1.000000 TR
     31.000000             1  1.000000 TR
     29.000000             1  1.000000 TR
     31.000000             1  1.000000 TR
     30.000000             1  1.000000 TR
     31.000000             1  1.000000 TR
     30.000000             1  1.000000 TR
     31.000000             1  1.000000 TR
     31.000000             1  1.000000 TR
     30.000000             1  1.000000 TR
     31.000000             1  1.000000 TR
     30.000000             1  1.000000 TR
     31.000000             1  1.000000 TR
     31.000000             1  1.000000 TR
     28.000000             1  1.000000 TR
     31.000000             1  1.000000 TR
     30.000000             1  1.000000 TR
     31.000000             1  1.000000 TR
     30.000000             1  1.000000 TR
     31.000000             1  1.000000 TR
     31.000000             1  1.000000 TR
     30.000000             1  1.000000 TR
     31.000000             1  1.000000 TR
     30.000000             1  1.000000 TR
     31.000000             1  1.000000 TR
     31.000000             1  1.000000 TR
     28.000000             1  1.000000 TR
     31.000000             1  1.000000 TR
     30.000000             1  1.000000 TR
     31.000000             1  1.000000 TR
     30.000000             1  1.000000 TR
     31.000000             1  1.000000 TR
     31.000000             1  1.000000 TR
     30.000000             1  1.000000 TR
     31.000000             1  1.000000 TR
     30.000000             1  1.000000 TR
     31.000000             1  1.000000 TR
     31.000000             1  1.000000 TR
     28.000000             1  1.000000 TR
     31.000000             1  1.000000 TR
     30.000000             1  1.000000 TR
     31.000000             1  1.000000 TR
     30.000000             1  1.000000 TR
     31.000000             1  1.000000 TR
     31.000000             1  1.000000 TR
     30.000000             1  1.000000 TR
     31.000000             1  1.000000 TR
     30.000000             1  1.000000 TR
     31.000000             1  1.000000 TR
     31.000000             1  1.000000 TR
     29.000000             1  1.000000 TR
     31.000000             1  1.000000 TR
     30.000000             1  1.000000 TR
     31.000000             1  1.000000 TR
     30.000000             1  1.000000 TR
     31.000000             1  1.000000 TR
     31.000000             1  1.000000 TR
     30.000000             1  1.000000 TR
     31.000000             1  1.000000 TR
     30.000000             1  1.000000 TR
     31.000000             1  1.000000 TR
     31.000000             1  1.000000 TR
     28.000000             1  1.000000 TR
     31.000000             1  1.000000 TR
     30.000000             1  1.000000 TR
     31.000000             1  1.000000 TR
     30.000000             1  1.000000 TR
     31.000000             1  1.000000 TR
     31.000000             1  1.000000 TR
     30.000000             1  1.000000 TR
     31.000000             1  1.000000 TR
     30.000000             1  1.000000 TR
     31.000000             1  1.000000 TR
     31.000000             1  1.000000 TR
     28.000000             1  1.000000 TR
     31.000000             1  1.000000 TR
     30.000000             1  1.000000 TR
     31.000000             1  1.000000 TR
     30.000000             1  1.000000 TR
     31.000000             1  1.000000 TR
     31.000000             1  1.000000 TR
     30.000000             1  1.000000 TR
     31.000000             1  1.000000 TR
     30.000000             1  1.000000 TR
     31.000000             1  1.000000 TR
     31.000000             1  1.000000 TR
     28.000000             1  1.000000 TR
     31.000000             1  1.000000 TR
     30.000000             1  1.000000 TR
     31.000000             1  1.000000 TR
     30.000000             1  1.000000 TR
     31.000000             1  1.000000 TR
     31.000000             1  1.000000 TR
     30.000000             1  1.000000 TR
     31.000000             1  1.000000 TR
     30.000000             1  1.000000 TR
     31.000000             1  1.000000 TR
     31.000000             1  1.000000 TR
     29.000000             1  1.000000 TR
     31.000000             1  1.000000 TR
     30.000000             1  1.000000 TR
     31.000000             1  1.000000 TR
     30.000000             1  1.000000 TR
     31.000000             1  1.000000 TR
     31.000000             1  1.000000 TR
     30.000000             1  1.000000 TR
     31.000000             1  1.000000 TR
     30.000000             1  1.000000 TR
     31.000000             1  1.000000 TR
     31.000000             1  1.000000 TR
     28.000000             1  1.000000 TR
     31.000000             1  1.000000 TR
     30.000000             1  1.000000 TR
     31.000000             1  1.000000 TR
     30.000000             1  1.000000 TR
     31.000000             1  1.000000 TR
     31.000000             1  1.000000 TR
     30.000000             1  1.000000 TR
     31.000000             1  1.000000 TR
     30.000000             1  1.000000 TR
     31.000000             1  1.000000 TR
     31.000000             1  1.000000 TR
     28.000000             1  1.000000 TR
     31.000000             1  1.000000 TR
     30.000000             1  1.000000 TR
     31.000000             1  1.000000 TR
     30.000000             1  1.000000 TR
     31.000000             1  1.000000 TR
     31.000000             1  1.000000 TR
     30.000000             1  1.000000 TR
     31.000000             1  1.000000 TR
     30.000000             1  1.000000 TR
     31.000000             1  1.000000 TR
     31.000000             1  1.000000 TR
     28.000000             1  1.000000 TR
     31.000000             1  1.000000 TR
     30.000000             1  1.000000 TR
     31.000000             1  1.000000 TR
     30.000000             1  1.000000 TR
     31.000000             1  1.000000 TR
     31.000000             1  1.000000 TR
     30.000000             1  1.000000 TR
     31.000000             1  1.000000 TR
     30.000000             1  1.000000 TR
     31.000000             1  1.000000 TR
     31.000000             1  1.000000 TR
     29.000000             1  1.000000 TR
     31.000000             1  1.000000 TR
     30.000000             1  1.000000 TR
     31.000000             1  1.000000 TR
     30.000000             1  1.000000 TR
     31.000000             1  1.000000 TR
     31.000000             1  1.000000 TR
     30.000000             1  1.000000 TR
     31.000000             1  1.000000 TR
     30.000000             1  1.000000 TR
     31.000000             1  1.000000 TR
     31.000000             1  1.000000 TR
     28.000000             1  1.000000 TR
     31.000000             1  1.000000 TR
     30.000000             1  1.000000 TR
     31.000000             1  1.000000 TR
     30.000000             1  1.000000 TR
     31.000000             1  1.000000 TR
     31.000000             1  1.000000 TR
     30.000000             1  1.000000 TR
     31.000000             1  1.000000 TR
     30.000000             1  1.000000 TR
     31.000000             1  1.000000 TR
     31.000000             1  1.000000 TR
     28.000000             1  1.000000 TR
     31.000000             1  1.000000 TR
     30.000000             1  1.000000 TR
     31.000000             1  1.000000 TR
     30.000000             1  1.000000 TR
     31.000000             1  1.000000 TR
     31.000000             1  1.000000 TR
     30.000000             1  1.000000 TR
     31.000000             1  1.000000 TR
     30.000000             1  1.000000 TR
     31.000000             1  1.000000 TR
     31.000000             1  1.000000 TR
     28.000000             1  1.000000 TR
     31.000000             1  1.000000 TR
     30.000000             1  1.000000 TR
     31.000000             1  1.000000 TR
     30.000000             1  1.000000 TR
     31.000000             1  1.000000 TR
     31.000000             1  1.000000 TR
     30.000000             1  1.000000 TR
     31.000000             1  1.000000 TR
     30.000000             1  1.000000 TR
     31.000000             1  1.000000 TR
     31.000000             1  1.000000 TR
     29.000000             1  1.000000 TR
     31.000000             1  1.000000 TR
     30.000000             1  1.000000 TR
     31.000000             1  1.000000 TR
     30.000000             1  1.000000 TR
     31.000000             1  1.000000 TR
     31.000000             1  1.000000 TR
     30.000000             1  1.000000 TR
     31.000000             1  1.000000 TR
     30.000000             1  1.000000 TR
     31.000000             1  1.000000 TR
     31.000000             1  1.000000 TR
     28.000000             1  1.000000 TR
     31.000000             1  1.000000 TR
     30.000000             1  1.000000 TR
     31.000000             1  1.000000 TR
     30.000000             1  1.000000 TR
     31.000000             1  1.000000 TR
     31.000000             1  1.000000 TR
     30.000000             1  1.000000 TR
     31.000000             1  1.000000 TR
     30.000000             1  1.000000 TR
     31.000000             1  1.000000 TR
     31.000000             1  1.000000 TR
     28.000000             1  1.000000 TR
     31.000000             1  1.000000 TR
     30.000000             1  1.000000 TR
     31.000000             1  1.000000 TR
     30.000000             1  1.000000 TR
     31.000000             1  1.000000 TR
     31.000000             1  1.000000 TR
     30.000000             1  1.000000 TR
     31.000000             1  1.000000 TR
     30.000000             1  1.000000 TR
     31.000000             1  1.000000 TR
     31.000000             1  1.000000 TR
     28.000000             1  1.000000 TR
     31.000000             1  1.000000 TR
     30.000000             1  1.000000 TR
     31.000000             1  1.000000 TR
     30.000000             1  1.000000 TR
     31.000000             1  1.000000 TR
     31.000000             1  1.000000 TR
     30.000000             1  1.000000 TR
     31.000000             1  1.000000 TR
     30.000000             1  1.000000 TR
     31.000000             1  1.000000 TR
     31.000000             1  1.000000 TR
     29.000000             1  1.000000 TR
     31.000000             1  1.000000 TR
     30.000000             1  1.000000 TR
     31.000000             1  1.000000 TR
     30.000000             1  1.000000 TR
     31.000000             1  1.000000 TR
     31.000000             1  1.000000 TR
     30.000000             1  1.000000 TR
     31.000000             1  1.000000 TR
     30.000000             1  1.000000 TR
     31.000000             1  1.000000 TR
     31.000000             1  1.000000 TR
     28.000000             1  1.000000 TR
     31.000000             1  1.000000 TR
     30.000000             1  1.000000 TR
     31.000000             1  1.000000 TR
     30.000000             1  1.000000 TR
     31.000000             1  1.000000 TR
     31.000000             1  1.000000 TR
     30.000000             1  1.000000 TR
     31.000000             1  1.000000 TR
     30.000000             1  1.000000 TR
     31.000000             1  1.000000 TR
     31.000000             1  1.000000 TR
     28.000000             1  1.000000 TR
     31.000000             1  1.000000 TR
     30.000000             1  1.000000 TR
     31.000000             1  1.000000 TR
     30.000000             1  1.000000 TR
     31.000000             1  1.000000 TR
     31.000000             1  1.000000 TR
     30.000000             1  1.000000 TR
     31.000000             1  1.000000 TR
     30.000000             1  1.000000 TR
     31.000000             1  1.000000 TR
     31.000000             1  1.000000 TR
     28.000000             1  1.000000 TR
     31.000000             1  1.000000 TR
     30.000000             1  1.000000 TR
     31.000000             1  1.000000 TR
     30.000000             1  1.000000 TR
     31.000000             1  1.000000 TR
     31.000000             1  1.000000 TR
     30.000000             1  1.000000 TR
     31.000000             1  1.000000 TR
     30.000000             1  1.000000 TR
     31.000000             1  1.000000 TR
     31.000000             1  1.000000 TR
     29.000000             1  1.000000 TR
     31.000000             1  1.000000 TR
     30.000000             1  1.000000 TR